LTspice 26.0.1 for Windows
Circuit: D:\Projet Capteur\2025-2026-4GP-NGUYEN-PHAN-GAMBOA\capteur\Circuit.net
Start Time: Sun Feb 22 13:23:17 2026

.step c4=5e-07 r2=500
solver = Normal
Maximum thread count: 8
tnom = 27
temp = 27
method = trap
Direct Newton iteration succeeded in finding operating point.

.step c4=1e-06 r2=500
Direct Newton iteration succeeded in finding operating point.

.step c4=1.5e-06 r2=500
Direct Newton iteration succeeded in finding operating point.

.step c4=2e-06 r2=500
Direct Newton iteration succeeded in finding operating point.

.step c4=5e-07 r2=1000
Direct Newton iteration succeeded in finding operating point.

.step c4=1e-06 r2=1000
Direct Newton iteration succeeded in finding operating point.

.step c4=1.5e-06 r2=1000
Direct Newton iteration succeeded in finding operating point.

.step c4=2e-06 r2=1000
Direct Newton iteration succeeded in finding operating point.

.step c4=5e-07 r2=1500
Direct Newton iteration succeeded in finding operating point.

.step c4=1e-06 r2=1500
Direct Newton iteration succeeded in finding operating point.

.step c4=1.5e-06 r2=1500
Direct Newton iteration succeeded in finding operating point.

.step c4=2e-06 r2=1500
Direct Newton iteration succeeded in finding operating point.

.step c4=5e-07 r2=2000
Direct Newton iteration succeeded in finding operating point.

.step c4=1e-06 r2=2000
Direct Newton iteration succeeded in finding operating point.

.step c4=1.5e-06 r2=2000
Direct Newton iteration succeeded in finding operating point.

.step c4=2e-06 r2=2000
Direct Newton iteration succeeded in finding operating point.
Total elapsed time: 3.407 seconds.

Files loaded:
D:\Projet Capteur\2025-2026-4GP-NGUYEN-PHAN-GAMBOA\capteur\Circuit.net
C:\Users\DELL\AppData\Local\LTspice\lib\sub\LTC.lib

